iidm/iidm-modification/src/test/resources/network-connectable-connection.xiidm
<?xml version="1.0" encoding="UTF-8"?>
<iidm:network xmlns:iidm="http://www.powsybl.org/schema/iidm/1_17" xmlns:bbsp="http://www.itesla_project.eu/schema/iidm/ext/busbarsectionposition/1_0" id="test" caseDate="2023-12-13T10:05:55.570Z" forecastDistance="0" sourceFormat="test" minimumValidationLevel="STEADY_STATE_HYPOTHESIS">
    <iidm:substation id="S1" country="FR">
        <iidm:voltageLevel id="VL1" nominalV="1.0" topologyKind="NODE_BREAKER">
            <iidm:nodeBreakerTopology>
                <iidm:busbarSection id="BBS11" node="0"/>
                <iidm:busbarSection id="BBS21" node="1"/>
                <iidm:busbarSection id="BBS12" node="2"/>
                <iidm:busbarSection id="BBS22" node="3"/>
                <iidm:switch id="D_BBS11_BBS12" kind="DISCONNECTOR" retained="false" open="true" node1="0" node2="2"/>
                <iidm:switch id="D_BBS21_BBS22" kind="DISCONNECTOR" retained="false" open="false" node1="1" node2="3"/>
                <iidm:switch id="B_L1_1" fictitious="true" kind="BREAKER" retained="false" open="false" node1="4" node2="7"/>
                <iidm:switch id="B_L1_2" kind="BREAKER" retained="false" open="false" node1="4" node2="7"/>
                <iidm:switch id="B_L2" fictitious="true" kind="BREAKER" retained="false" open="false" node1="5" node2="8"/>
                <iidm:switch id="B_TWT" fictitious="true" kind="BREAKER" retained="false" open="true" node1="6" node2="9"/>
                <iidm:switch id="B0" fictitious="true" kind="BREAKER" retained="false" open="false" node1="7" node2="17"/>
                <iidm:switch id="B1" kind="BREAKER" retained="false" open="true" node1="8" node2="11"/>
                <iidm:switch id="B2" fictitious="true" kind="BREAKER" retained="false" open="false" node1="9" node2="12"/>
                <iidm:switch id="B3" kind="BREAKER" retained="false" open="false" node1="7" node2="8"/>
                <iidm:switch id="B4" kind="BREAKER" retained="false" open="false" node1="8" node2="9"/>
                <iidm:switch id="B5" fictitious="true" kind="BREAKER" retained="false" open="false" node1="17" node2="10"/>
                <iidm:switch id="D0" kind="DISCONNECTOR" retained="false" open="true" node1="0" node2="10"/>
                <iidm:switch id="D1" kind="DISCONNECTOR" retained="false" open="false" node1="1" node2="10"/>
                <iidm:switch id="D2" kind="DISCONNECTOR" retained="false" open="false" node1="0" node2="11"/>
                <iidm:switch id="D3" kind="DISCONNECTOR" retained="false" open="true" node1="1" node2="11"/>
                <iidm:switch id="D4" kind="DISCONNECTOR" retained="false" open="false" node1="2" node2="12"/>
                <iidm:switch id="D5" kind="DISCONNECTOR" retained="false" open="true" node1="3" node2="12"/>
            </iidm:nodeBreakerTopology>
        </iidm:voltageLevel>
        <iidm:voltageLevel id="VL2" nominalV="1.0" topologyKind="BUS_BREAKER">
            <iidm:busBreakerTopology>
                <iidm:bus id="bus2A"/>
                <iidm:bus id="bus2B"/>
            </iidm:busBreakerTopology>
        </iidm:voltageLevel>
        <iidm:voltageLevel id="VL3" nominalV="1.0" topologyKind="BUS_BREAKER">
            <iidm:busBreakerTopology>
                <iidm:bus id="bus3A"/>
                <iidm:bus id="bus3B"/>
            </iidm:busBreakerTopology>
        </iidm:voltageLevel>
        <iidm:threeWindingsTransformer id="twt" name="TWT_NAME" r1="1.3" x1="1.4" g1="1.6" b1="1.7" ratedU1="1.1" ratedS1="1.2" r2="2.03" x2="2.04" g2="0.0" b2="0.0" ratedU2="2.05" ratedS2="2.06" r3="3.3" x3="3.4" g3="0.0" b3="0.0" ratedU3="3.5" ratedS3="3.6" ratedU0="1.1" voltageLevelId1="VL1" node1="6" voltageLevelId2="VL2" bus2="bus2B" connectableBus2="bus2B" voltageLevelId3="VL3" bus3="bus3B" connectableBus3="bus3B"/>
    </iidm:substation>
    <iidm:line id="L1" name="LINE1" r="1.0" x="2.0" g1="3.0" b1="4.0" g2="3.5" b2="4.5" voltageLevelId1="VL1" node1="4" voltageLevelId2="VL2" bus2="bus2A" connectableBus2="bus2A"/>
    <iidm:line id="L2" name="LINE2" r="1.0" x="2.0" g1="3.0" b1="4.0" g2="3.5" b2="4.5" voltageLevelId1="VL1" node1="5" voltageLevelId2="VL3" bus2="bus3A" connectableBus2="bus3A"/>
    <iidm:extension id="BBS11">
        <bbsp:busbarSectionPosition busbarIndex="1" sectionIndex="1"/>
    </iidm:extension>
    <iidm:extension id="BBS21">
        <bbsp:busbarSectionPosition busbarIndex="2" sectionIndex="1"/>
    </iidm:extension>
    <iidm:extension id="BBS12">
        <bbsp:busbarSectionPosition busbarIndex="1" sectionIndex="2"/>
    </iidm:extension>
    <iidm:extension id="BBS22">
        <bbsp:busbarSectionPosition busbarIndex="2" sectionIndex="2"/>
    </iidm:extension>
</iidm:network>
